Circuit: * C:\Users\rnove\Documents\C Projects\CORDIC\cordic\cordic_dac.asc

v3: Removing PWL point (1.666e-06,5)
v3: Removing PWL point (4.2483e-05,0)
v3: Removing PWL point (8.4133e-05,5)
v3: Removing PWL point (0.00012495,0)
v3: Removing PWL point (0.0001666,5)
v3: Removing PWL point (0.000207417,0)
v3: Removing PWL point (0.000249067,5)
v3: Removing PWL point (0.000289884,0)
v3: Removing PWL point (0.000331534,5)
v3: Removing PWL point (0.000372351,0)
v3: Removing PWL point (0.000414001,5)
v3: Removing PWL point (0.000454818,0)
v3: Removing PWL point (0.000496468,5)
v3: Removing PWL point (0.000537285,0)
v4: Removing PWL point (1.666e-06,0)
v4: Removing PWL point (8.33e-06,5)
v4: Removing PWL point (3.5819e-05,0)
v4: Removing PWL point (4.2483e-05,5)
v4: Removing PWL point (4.998e-05,0)
v4: Removing PWL point (7.7469e-05,5)
v4: Removing PWL point (8.4133e-05,0)
v4: Removing PWL point (9.0797e-05,5)
v4: Removing PWL point (0.000118286,0)
v4: Removing PWL point (0.00012495,5)
v4: Removing PWL point (0.000132447,0)
v4: Removing PWL point (0.000159936,5)
v4: Removing PWL point (0.0001666,0)
v4: Removing PWL point (0.000173264,5)
v4: Removing PWL point (0.000200753,0)
v4: Removing PWL point (0.000207417,5)
v4: Removing PWL point (0.000214914,0)
v4: Removing PWL point (0.000242403,5)
v4: Removing PWL point (0.000249067,0)
v4: Removing PWL point (0.000255731,5)
v4: Removing PWL point (0.00028322,0)
v4: Removing PWL point (0.000289884,5)
v4: Removing PWL point (0.000297381,0)
v4: Removing PWL point (0.00032487,5)
v4: Removing PWL point (0.000331534,0)
v4: Removing PWL point (0.000338198,5)
v4: Removing PWL point (0.000365687,0)
v4: Removing PWL point (0.000372351,5)
v4: Removing PWL point (0.000379848,0)
v4: Removing PWL point (0.000407337,5)
v4: Removing PWL point (0.000414001,0)
v4: Removing PWL point (0.000420665,5)
v4: Removing PWL point (0.000448154,0)
v4: Removing PWL point (0.000454818,5)
v4: Removing PWL point (0.000462315,0)
v4: Removing PWL point (0.000489804,5)
v4: Removing PWL point (0.000496468,0)
v4: Removing PWL point (0.000503132,5)
v4: Removing PWL point (0.000530621,0)
v4: Removing PWL point (0.000537285,5)
v4: Removing PWL point (0.000544782,0)
v4: Removing PWL point (0.000572271,5)
v5: Removing PWL point (1.666e-06,0)
v5: Removing PWL point (4.998e-06,5)
v5: Removing PWL point (8.33e-06,0)
v5: Removing PWL point (1.2495e-05,5)
v5: Removing PWL point (3.1654e-05,0)
v5: Removing PWL point (3.5819e-05,5)
v5: Removing PWL point (3.9151e-05,0)
v5: Removing PWL point (4.2483e-05,5)
v5: Removing PWL point (4.6648e-05,0)
v5: Removing PWL point (4.998e-05,5)
v5: Removing PWL point (5.4145e-05,0)
v5: Removing PWL point (7.3304e-05,5)
v5: Removing PWL point (7.7469e-05,0)
v5: Removing PWL point (8.0801e-05,5)
v5: Removing PWL point (8.4133e-05,0)
v5: Removing PWL point (8.7465e-05,5)
v5: Removing PWL point (9.0797e-05,0)
v5: Removing PWL point (9.4962e-05,5)
v5: Removing PWL point (0.000114121,0)
v5: Removing PWL point (0.000118286,5)
v5: Removing PWL point (0.000121618,0)
v5: Removing PWL point (0.00012495,5)
v5: Removing PWL point (0.000129115,0)
v5: Removing PWL point (0.000132447,5)
v5: Removing PWL point (0.000136612,0)
v5: Removing PWL point (0.000155771,5)
v5: Removing PWL point (0.000159936,0)
v5: Removing PWL point (0.000163268,5)
v5: Removing PWL point (0.0001666,0)
v5: Removing PWL point (0.000169932,5)
v5: Removing PWL point (0.000173264,0)
v5: Removing PWL point (0.000177429,5)
v5: Removing PWL point (0.000196588,0)
v5: Removing PWL point (0.000200753,5)
v5: Removing PWL point (0.000204085,0)
v5: Removing PWL point (0.000207417,5)
v5: Removing PWL point (0.000211582,0)
v5: Removing PWL point (0.000214914,5)
v5: Removing PWL point (0.000219079,0)
v5: Removing PWL point (0.000238238,5)
v5: Removing PWL point (0.000242403,0)
v5: Removing PWL point (0.000245735,5)
v5: Removing PWL point (0.000249067,0)
v5: Removing PWL point (0.000252399,5)
v5: Removing PWL point (0.000255731,0)
v5: Removing PWL point (0.000259896,5)
v5: Removing PWL point (0.000279055,0)
v5: Removing PWL point (0.00028322,5)
v5: Removing PWL point (0.000286552,0)
v5: Removing PWL point (0.000289884,5)
v5: Removing PWL point (0.000294049,0)
v5: Removing PWL point (0.000297381,5)
v5: Removing PWL point (0.000301546,0)
v5: Removing PWL point (0.000320705,5)
v5: Removing PWL point (0.00032487,0)
v5: Removing PWL point (0.000328202,5)
v5: Removing PWL point (0.000331534,0)
v5: Removing PWL point (0.000334866,5)
v5: Removing PWL point (0.000338198,0)
v5: Removing PWL point (0.000342363,5)
v5: Removing PWL point (0.000361522,0)
v5: Removing PWL point (0.000365687,5)
v5: Removing PWL point (0.000369019,0)
v5: Removing PWL point (0.000372351,5)
v5: Removing PWL point (0.000376516,0)
v5: Removing PWL point (0.000379848,5)
v5: Removing PWL point (0.000384013,0)
v5: Removing PWL point (0.000403172,5)
v5: Removing PWL point (0.000407337,0)
v5: Removing PWL point (0.000410669,5)
v5: Removing PWL point (0.000414001,0)
v5: Removing PWL point (0.000417333,5)
v5: Removing PWL point (0.000420665,0)
v5: Removing PWL point (0.00042483,5)
v5: Removing PWL point (0.000443989,0)
v5: Removing PWL point (0.000448154,5)
v5: Removing PWL point (0.000451486,0)
v5: Removing PWL point (0.000454818,5)
v5: Removing PWL point (0.000458983,0)
v5: Removing PWL point (0.000462315,5)
v5: Removing PWL point (0.00046648,0)
v5: Removing PWL point (0.000485639,5)
v5: Removing PWL point (0.000489804,0)
v5: Removing PWL point (0.000493136,5)
v5: Removing PWL point (0.000496468,0)
v5: Removing PWL point (0.0004998,5)
v5: Removing PWL point (0.000503132,0)
v5: Removing PWL point (0.000507297,5)
v5: Removing PWL point (0.000526456,0)
v5: Removing PWL point (0.000530621,5)
v5: Removing PWL point (0.000533953,0)
v5: Removing PWL point (0.000537285,5)
v5: Removing PWL point (0.00054145,0)
v5: Removing PWL point (0.000544782,5)
v5: Removing PWL point (0.000548947,0)
v5: Removing PWL point (0.000568106,5)
v5: Removing PWL point (0.000572271,0)
v5: Removing PWL point (0.000575603,5)
v6: Removing PWL point (2.499e-06,5)
v6: Removing PWL point (4.998e-06,0)
v6: Removing PWL point (6.664e-06,5)
v6: Removing PWL point (8.33e-06,0)
v6: Removing PWL point (9.996e-06,5)
v6: Removing PWL point (1.2495e-05,0)
v6: Removing PWL point (1.4994e-05,5)
v6: Removing PWL point (2.9155e-05,0)
v6: Removing PWL point (3.1654e-05,5)
v6: Removing PWL point (3.4153e-05,0)
v6: Removing PWL point (3.5819e-05,5)
v6: Removing PWL point (3.7485e-05,0)
v6: Removing PWL point (3.9151e-05,5)
v6: Removing PWL point (4.2483e-05,5)
v6: Removing PWL point (4.4149e-05,0)
v6: Removing PWL point (4.6648e-05,5)
v6: Removing PWL point (4.8314e-05,0)
v6: Removing PWL point (4.998e-05,5)
v6: Removing PWL point (5.1646e-05,0)
v6: Removing PWL point (5.4145e-05,5)
v6: Removing PWL point (5.6644e-05,0)
v6: Removing PWL point (7.0805e-05,5)
v6: Removing PWL point (7.3304e-05,0)
v6: Removing PWL point (7.5803e-05,5)
v6: Removing PWL point (7.7469e-05,0)
v6: Removing PWL point (7.9135e-05,5)
v6: Removing PWL point (8.0801e-05,0)
v6: Removing PWL point (8.4966e-05,5)
v6: Removing PWL point (8.7465e-05,0)
v6: Removing PWL point (8.9131e-05,5)
v6: Removing PWL point (9.0797e-05,0)
v6: Removing PWL point (9.2463e-05,5)
v6: Removing PWL point (9.4962e-05,0)
v6: Removing PWL point (9.7461e-05,5)
v6: Removing PWL point (0.000111622,0)
v6: Removing PWL point (0.000114121,5)
v6: Removing PWL point (0.00011662,0)
v6: Removing PWL point (0.000118286,5)
v6: Removing PWL point (0.000119952,0)
v6: Removing PWL point (0.000121618,5)
v6: Removing PWL point (0.00012495,5)
v6: Removing PWL point (0.000126616,0)
v6: Removing PWL point (0.000129115,5)
v6: Removing PWL point (0.000130781,0)
v6: Removing PWL point (0.000132447,5)
v6: Removing PWL point (0.000134113,0)
v6: Removing PWL point (0.000136612,5)
v6: Removing PWL point (0.000139111,0)
v6: Removing PWL point (0.000153272,5)
v6: Removing PWL point (0.000155771,0)
v6: Removing PWL point (0.00015827,5)
v6: Removing PWL point (0.000159936,0)
v6: Removing PWL point (0.000161602,5)
v6: Removing PWL point (0.000163268,0)
v6: Removing PWL point (0.000167433,5)
v6: Removing PWL point (0.000169932,0)
v6: Removing PWL point (0.000171598,5)
v6: Removing PWL point (0.000173264,0)
v6: Removing PWL point (0.00017493,5)
v6: Removing PWL point (0.000177429,0)
v6: Removing PWL point (0.000179928,5)
v6: Removing PWL point (0.000194089,0)
v6: Removing PWL point (0.000196588,5)
v6: Removing PWL point (0.000199087,0)
v6: Removing PWL point (0.000200753,5)
v6: Removing PWL point (0.000202419,0)
v6: Removing PWL point (0.000204085,5)
v6: Removing PWL point (0.000207417,5)
v6: Removing PWL point (0.000209083,0)
v6: Removing PWL point (0.000211582,5)
v6: Removing PWL point (0.000213248,0)
v6: Removing PWL point (0.000214914,5)
v6: Removing PWL point (0.00021658,0)
v6: Removing PWL point (0.000219079,5)
v6: Removing PWL point (0.000221578,0)
v6: Removing PWL point (0.000235739,5)
v6: Removing PWL point (0.000238238,0)
v6: Removing PWL point (0.000240737,5)
v6: Removing PWL point (0.000242403,0)
v6: Removing PWL point (0.000244069,5)
v6: Removing PWL point (0.000245735,0)
v6: Removing PWL point (0.0002499,5)
v6: Removing PWL point (0.000252399,0)
v6: Removing PWL point (0.000254065,5)
v6: Removing PWL point (0.000255731,0)
v6: Removing PWL point (0.000257397,5)
v6: Removing PWL point (0.000259896,0)
v6: Removing PWL point (0.000262395,5)
v6: Removing PWL point (0.000276556,0)
v6: Removing PWL point (0.000279055,5)
v6: Removing PWL point (0.000281554,0)
v6: Removing PWL point (0.00028322,5)
v6: Removing PWL point (0.000284886,0)
v6: Removing PWL point (0.000286552,5)
v6: Removing PWL point (0.000289884,5)
v6: Removing PWL point (0.00029155,0)
v6: Removing PWL point (0.000294049,5)
v6: Removing PWL point (0.000295715,0)
v6: Removing PWL point (0.000297381,5)
v6: Removing PWL point (0.000299047,0)
v6: Removing PWL point (0.000301546,5)
v6: Removing PWL point (0.000304045,0)
v6: Removing PWL point (0.000318206,5)
v6: Removing PWL point (0.000320705,0)
v6: Removing PWL point (0.000323204,5)
v6: Removing PWL point (0.00032487,0)
v6: Removing PWL point (0.000326536,5)
v6: Removing PWL point (0.000328202,0)
v6: Removing PWL point (0.000332367,5)
v6: Removing PWL point (0.000334866,0)
v6: Removing PWL point (0.000336532,5)
v6: Removing PWL point (0.000338198,0)
v6: Removing PWL point (0.000339864,5)
v6: Removing PWL point (0.000342363,0)
v6: Removing PWL point (0.000344862,5)
v6: Removing PWL point (0.000359023,0)
v6: Removing PWL point (0.000361522,5)
v6: Removing PWL point (0.000364021,0)
v6: Removing PWL point (0.000365687,5)
v6: Removing PWL point (0.000367353,0)
v6: Removing PWL point (0.000369019,5)
v6: Removing PWL point (0.000372351,5)
v6: Removing PWL point (0.000374017,0)
v6: Removing PWL point (0.000376516,5)
v6: Removing PWL point (0.000378182,0)
v6: Removing PWL point (0.000379848,5)
v6: Removing PWL point (0.000381514,0)
v6: Removing PWL point (0.000384013,5)
v6: Removing PWL point (0.000386512,0)
v6: Removing PWL point (0.000400673,5)
v6: Removing PWL point (0.000403172,0)
v6: Removing PWL point (0.000405671,5)
v6: Removing PWL point (0.000407337,0)
v6: Removing PWL point (0.000409003,5)
v6: Removing PWL point (0.000410669,0)
v6: Removing PWL point (0.000414834,5)
v6: Removing PWL point (0.000417333,0)
v6: Removing PWL point (0.000418999,5)
v6: Removing PWL point (0.000420665,0)
v6: Removing PWL point (0.000422331,5)
v6: Removing PWL point (0.00042483,0)
v6: Removing PWL point (0.000427329,5)
v6: Removing PWL point (0.00044149,0)
v6: Removing PWL point (0.000443989,5)
v6: Removing PWL point (0.000446488,0)
v6: Removing PWL point (0.000448154,5)
v6: Removing PWL point (0.00044982,0)
v6: Removing PWL point (0.000451486,5)
v6: Removing PWL point (0.000454818,5)
v6: Removing PWL point (0.000456484,0)
v6: Removing PWL point (0.000458983,5)
v6: Removing PWL point (0.000460649,0)
v6: Removing PWL point (0.000462315,5)
v6: Removing PWL point (0.000463981,0)
v6: Removing PWL point (0.00046648,5)
v6: Removing PWL point (0.000468979,0)
v6: Removing PWL point (0.00048314,5)
v6: Removing PWL point (0.000485639,0)
v6: Removing PWL point (0.000488138,5)
v6: Removing PWL point (0.000489804,0)
v6: Removing PWL point (0.00049147,5)
v6: Removing PWL point (0.000493136,0)
v6: Removing PWL point (0.000497301,5)
v6: Removing PWL point (0.0004998,0)
v6: Removing PWL point (0.000501466,5)
v6: Removing PWL point (0.000503132,0)
v6: Removing PWL point (0.000504798,5)
v6: Removing PWL point (0.000507297,0)
v6: Removing PWL point (0.000509796,5)
v6: Removing PWL point (0.000523957,0)
v6: Removing PWL point (0.000526456,5)
v6: Removing PWL point (0.000528955,0)
v6: Removing PWL point (0.000530621,5)
v6: Removing PWL point (0.000532287,0)
v6: Removing PWL point (0.000533953,5)
v6: Removing PWL point (0.000537285,5)
v6: Removing PWL point (0.000538951,0)
v6: Removing PWL point (0.00054145,5)
v6: Removing PWL point (0.000543116,0)
v6: Removing PWL point (0.000544782,5)
v6: Removing PWL point (0.000546448,0)
v6: Removing PWL point (0.000548947,5)
v6: Removing PWL point (0.000551446,0)
v6: Removing PWL point (0.000565607,5)
v6: Removing PWL point (0.000568106,0)
v6: Removing PWL point (0.000570605,5)
v6: Removing PWL point (0.000572271,0)
v6: Removing PWL point (0.000573937,5)
v6: Removing PWL point (0.000575603,0)
v7: Removing PWL point (1.666e-06,0)
v7: Removing PWL point (9.996e-06,0)
v7: Removing PWL point (1.2495e-05,0)
v7: Removing PWL point (1.4994e-05,0)
v7: Removing PWL point (1.7493e-05,5)
v7: Removing PWL point (2.6656e-05,0)
v7: Removing PWL point (2.9988e-05,0)
v7: Removing PWL point (3.2487e-05,0)
v7: Removing PWL point (3.9984e-05,0)
v7: Removing PWL point (4.2483e-05,5)
v7: Removing PWL point (5.2479e-05,0)
v7: Removing PWL point (5.4145e-05,5)
v7: Removing PWL point (5.6644e-05,5)
v7: Removing PWL point (5.9143e-05,0)
v7: Removing PWL point (6.8306e-05,5)
v7: Removing PWL point (7.1638e-05,5)
v7: Removing PWL point (7.3304e-05,0)
v7: Removing PWL point (8.1634e-05,5)
v7: Removing PWL point (8.4133e-05,0)
v7: Removing PWL point (9.2463e-05,0)
v7: Removing PWL point (9.4962e-05,0)
v7: Removing PWL point (9.7461e-05,0)
v7: Removing PWL point (9.996e-05,5)
v7: Removing PWL point (0.000109123,0)
v7: Removing PWL point (0.000112455,0)
v7: Removing PWL point (0.000114954,0)
v7: Removing PWL point (0.000122451,0)
v7: Removing PWL point (0.00012495,5)
v7: Removing PWL point (0.000134946,0)
v7: Removing PWL point (0.000136612,5)
v7: Removing PWL point (0.000139111,5)
v7: Removing PWL point (0.00014161,0)
v7: Removing PWL point (0.000150773,5)
v7: Removing PWL point (0.000154105,5)
v7: Removing PWL point (0.000155771,0)
v7: Removing PWL point (0.000164101,5)
v7: Removing PWL point (0.0001666,0)
v7: Removing PWL point (0.00017493,0)
v7: Removing PWL point (0.000177429,0)
v7: Removing PWL point (0.000179928,0)
v7: Removing PWL point (0.000182427,5)
v7: Removing PWL point (0.00019159,0)
v7: Removing PWL point (0.000194922,0)
v7: Removing PWL point (0.000197421,0)
v7: Removing PWL point (0.000204918,0)
v7: Removing PWL point (0.000207417,5)
v7: Removing PWL point (0.000217413,0)
v7: Removing PWL point (0.000219079,5)
v7: Removing PWL point (0.000221578,5)
v7: Removing PWL point (0.000224077,0)
v7: Removing PWL point (0.00023324,5)
v7: Removing PWL point (0.000236572,5)
v7: Removing PWL point (0.000238238,0)
v7: Removing PWL point (0.000246568,5)
v7: Removing PWL point (0.000249067,0)
v7: Removing PWL point (0.000257397,0)
v7: Removing PWL point (0.000259896,0)
v7: Removing PWL point (0.000262395,0)
v7: Removing PWL point (0.000264894,5)
v7: Removing PWL point (0.000274057,0)
v7: Removing PWL point (0.000277389,0)
v7: Removing PWL point (0.000279888,0)
v7: Removing PWL point (0.000287385,0)
v7: Removing PWL point (0.000289884,5)
v7: Removing PWL point (0.00029988,0)
v7: Removing PWL point (0.000301546,5)
v7: Removing PWL point (0.000304045,5)
v7: Removing PWL point (0.000306544,0)
v7: Removing PWL point (0.000315707,5)
v7: Removing PWL point (0.000319039,5)
v7: Removing PWL point (0.000320705,0)
v7: Removing PWL point (0.000329035,5)
v7: Removing PWL point (0.000331534,0)
v7: Removing PWL point (0.000339864,0)
v7: Removing PWL point (0.000342363,0)
v7: Removing PWL point (0.000344862,0)
v7: Removing PWL point (0.000347361,5)
v7: Removing PWL point (0.000356524,0)
v7: Removing PWL point (0.000359856,0)
v7: Removing PWL point (0.000362355,0)
v7: Removing PWL point (0.000369852,0)
v7: Removing PWL point (0.000372351,5)
v7: Removing PWL point (0.000382347,0)
v7: Removing PWL point (0.000384013,5)
v7: Removing PWL point (0.000386512,5)
v7: Removing PWL point (0.000389011,0)
v7: Removing PWL point (0.000398174,5)
v7: Removing PWL point (0.000401506,5)
v7: Removing PWL point (0.000403172,0)
v7: Removing PWL point (0.000411502,5)
v7: Removing PWL point (0.000414001,0)
v7: Removing PWL point (0.000422331,0)
v7: Removing PWL point (0.00042483,0)
v7: Removing PWL point (0.000427329,0)
v7: Removing PWL point (0.000429828,5)
v7: Removing PWL point (0.000438991,0)
v7: Removing PWL point (0.000442323,0)
v7: Removing PWL point (0.000444822,0)
v7: Removing PWL point (0.000452319,0)
v7: Removing PWL point (0.000454818,5)
v7: Removing PWL point (0.000464814,0)
v7: Removing PWL point (0.00046648,5)
v7: Removing PWL point (0.000468979,5)
v7: Removing PWL point (0.000471478,0)
v7: Removing PWL point (0.000480641,5)
v7: Removing PWL point (0.000483973,5)
v7: Removing PWL point (0.000485639,0)
v7: Removing PWL point (0.000493969,5)
v7: Removing PWL point (0.000496468,0)
v7: Removing PWL point (0.000504798,0)
v7: Removing PWL point (0.000507297,0)
v7: Removing PWL point (0.000509796,0)
v7: Removing PWL point (0.000512295,5)
v7: Removing PWL point (0.000521458,0)
v7: Removing PWL point (0.00052479,0)
v7: Removing PWL point (0.000527289,0)
v7: Removing PWL point (0.000534786,0)
v7: Removing PWL point (0.000537285,5)
v7: Removing PWL point (0.000547281,0)
v7: Removing PWL point (0.000548947,5)
v7: Removing PWL point (0.000551446,5)
v7: Removing PWL point (0.000553945,0)
v7: Removing PWL point (0.000563108,5)
v7: Removing PWL point (0.00056644,5)
v7: Removing PWL point (0.000568106,0)
v7: Removing PWL point (0.000576436,5)
v8: Removing PWL point (3.332e-06,5)
v8: Removing PWL point (8.33e-06,0)
v8: Removing PWL point (1.1662e-05,0)
v8: Removing PWL point (1.3328e-05,5)
v8: Removing PWL point (1.4994e-05,0)
v8: Removing PWL point (1.7493e-05,0)
v8: Removing PWL point (1.9159e-05,5)
v8: Removing PWL point (2.499e-05,0)
v8: Removing PWL point (2.7489e-05,0)
v8: Removing PWL point (2.9155e-05,5)
v8: Removing PWL point (3.0821e-05,0)
v8: Removing PWL point (3.332e-05,0)
v8: Removing PWL point (3.5819e-05,5)
v8: Removing PWL point (4.165e-05,5)
v8: Removing PWL point (4.4982e-05,0)
v8: Removing PWL point (4.998e-05,5)
v8: Removing PWL point (5.4978e-05,0)
v8: Removing PWL point (5.7477e-05,0)
v8: Removing PWL point (5.9976e-05,0)
v8: Removing PWL point (6.8306e-05,0)
v8: Removing PWL point (7.0805e-05,0)
v8: Removing PWL point (7.4137e-05,5)
v8: Removing PWL point (7.7469e-05,0)
v8: Removing PWL point (8.5799e-05,5)
v8: Removing PWL point (9.0797e-05,0)
v8: Removing PWL point (9.4129e-05,0)
v8: Removing PWL point (9.5795e-05,5)
v8: Removing PWL point (9.7461e-05,0)
v8: Removing PWL point (9.996e-05,0)
v8: Removing PWL point (0.000101626,5)
v8: Removing PWL point (0.000107457,0)
v8: Removing PWL point (0.000109956,0)
v8: Removing PWL point (0.000111622,5)
v8: Removing PWL point (0.000113288,0)
v8: Removing PWL point (0.000115787,0)
v8: Removing PWL point (0.000118286,5)
v8: Removing PWL point (0.000124117,5)
v8: Removing PWL point (0.000127449,0)
v8: Removing PWL point (0.000132447,5)
v8: Removing PWL point (0.000137445,0)
v8: Removing PWL point (0.000139944,0)
v8: Removing PWL point (0.000142443,0)
v8: Removing PWL point (0.000150773,0)
v8: Removing PWL point (0.000153272,0)
v8: Removing PWL point (0.000156604,5)
v8: Removing PWL point (0.000159936,0)
v8: Removing PWL point (0.000168266,5)
v8: Removing PWL point (0.000173264,0)
v8: Removing PWL point (0.000176596,0)
v8: Removing PWL point (0.000178262,5)
v8: Removing PWL point (0.000179928,0)
v8: Removing PWL point (0.000182427,0)
v8: Removing PWL point (0.000184093,5)
v8: Removing PWL point (0.000189924,0)
v8: Removing PWL point (0.000192423,0)
v8: Removing PWL point (0.000194089,5)
v8: Removing PWL point (0.000195755,0)
v8: Removing PWL point (0.000198254,0)
v8: Removing PWL point (0.000200753,5)
v8: Removing PWL point (0.000206584,5)
v8: Removing PWL point (0.000209916,0)
v8: Removing PWL point (0.000214914,5)
v8: Removing PWL point (0.000219912,0)
v8: Removing PWL point (0.000222411,0)
v8: Removing PWL point (0.00022491,0)
v8: Removing PWL point (0.00023324,0)
v8: Removing PWL point (0.000235739,0)
v8: Removing PWL point (0.000239071,5)
v8: Removing PWL point (0.000242403,0)
v8: Removing PWL point (0.000250733,5)
v8: Removing PWL point (0.000255731,0)
v8: Removing PWL point (0.000259063,0)
v8: Removing PWL point (0.000260729,5)
v8: Removing PWL point (0.000262395,0)
v8: Removing PWL point (0.000264894,0)
v8: Removing PWL point (0.00026656,5)
v8: Removing PWL point (0.000272391,0)
v8: Removing PWL point (0.00027489,0)
v8: Removing PWL point (0.000276556,5)
v8: Removing PWL point (0.000278222,0)
v8: Removing PWL point (0.000280721,0)
v8: Removing PWL point (0.00028322,5)
v8: Removing PWL point (0.000289051,5)
v8: Removing PWL point (0.000292383,0)
v8: Removing PWL point (0.000297381,5)
v8: Removing PWL point (0.000302379,0)
v8: Removing PWL point (0.000304878,0)
v8: Removing PWL point (0.000307377,0)
v8: Removing PWL point (0.000315707,0)
v8: Removing PWL point (0.000318206,0)
v8: Removing PWL point (0.000321538,5)
v8: Removing PWL point (0.00032487,0)
v8: Removing PWL point (0.0003332,5)
v8: Removing PWL point (0.000338198,0)
v8: Removing PWL point (0.00034153,0)
v8: Removing PWL point (0.000343196,5)
v8: Removing PWL point (0.000344862,0)
v8: Removing PWL point (0.000347361,0)
v8: Removing PWL point (0.000349027,5)
v8: Removing PWL point (0.000354858,0)
v8: Removing PWL point (0.000357357,0)
v8: Removing PWL point (0.000359023,5)
v8: Removing PWL point (0.000360689,0)
v8: Removing PWL point (0.000363188,0)
v8: Removing PWL point (0.000365687,5)
v8: Removing PWL point (0.000371518,5)
v8: Removing PWL point (0.00037485,0)
v8: Removing PWL point (0.000379848,5)
v8: Removing PWL point (0.000384846,0)
v8: Removing PWL point (0.000387345,0)
v8: Removing PWL point (0.000389844,0)
v8: Removing PWL point (0.000398174,0)
v8: Removing PWL point (0.000400673,0)
v8: Removing PWL point (0.000404005,5)
v8: Removing PWL point (0.000407337,0)
v8: Removing PWL point (0.000415667,5)
v8: Removing PWL point (0.000420665,0)
v8: Removing PWL point (0.000423997,0)
v8: Removing PWL point (0.000425663,5)
v8: Removing PWL point (0.000427329,0)
v8: Removing PWL point (0.000429828,0)
v8: Removing PWL point (0.000431494,5)
v8: Removing PWL point (0.000437325,0)
v8: Removing PWL point (0.000439824,0)
v8: Removing PWL point (0.00044149,5)
v8: Removing PWL point (0.000443156,0)
v8: Removing PWL point (0.000445655,0)
v8: Removing PWL point (0.000448154,5)
v8: Removing PWL point (0.000453985,5)
v8: Removing PWL point (0.000457317,0)
v8: Removing PWL point (0.000462315,5)
v8: Removing PWL point (0.000467313,0)
v8: Removing PWL point (0.000469812,0)
v8: Removing PWL point (0.000472311,0)
v8: Removing PWL point (0.000480641,0)
v8: Removing PWL point (0.00048314,0)
v8: Removing PWL point (0.000486472,5)
v8: Removing PWL point (0.000489804,0)
v8: Removing PWL point (0.000498134,5)
v8: Removing PWL point (0.000503132,0)
v8: Removing PWL point (0.000506464,0)
v8: Removing PWL point (0.00050813,5)
v8: Removing PWL point (0.000509796,0)
v8: Removing PWL point (0.000512295,0)
v8: Removing PWL point (0.000513961,5)
v8: Removing PWL point (0.000519792,0)
v8: Removing PWL point (0.000522291,0)
v8: Removing PWL point (0.000523957,5)
v8: Removing PWL point (0.000525623,0)
v8: Removing PWL point (0.000528122,0)
v8: Removing PWL point (0.000530621,5)
v8: Removing PWL point (0.000536452,5)
v8: Removing PWL point (0.000539784,0)
v8: Removing PWL point (0.000544782,5)
v8: Removing PWL point (0.00054978,0)
v8: Removing PWL point (0.000552279,0)
v8: Removing PWL point (0.000554778,0)
v8: Removing PWL point (0.000563108,0)
v8: Removing PWL point (0.000565607,0)
v8: Removing PWL point (0.000568939,5)
v8: Removing PWL point (0.000572271,0)
v9: Removing PWL point (3.332e-06,5)
v9: Removing PWL point (6.664e-06,0)
v9: Removing PWL point (9.996e-06,5)
v9: Removing PWL point (1.4161e-05,0)
v9: Removing PWL point (1.5827e-05,5)
v9: Removing PWL point (1.9992e-05,5)
v9: Removing PWL point (2.6656e-05,5)
v9: Removing PWL point (2.8322e-05,0)
v9: Removing PWL point (3.1654e-05,5)
v9: Removing PWL point (3.5819e-05,0)
v9: Removing PWL point (3.7485e-05,5)
v9: Removing PWL point (4.165e-05,5)
v9: Removing PWL point (4.4982e-05,0)
v9: Removing PWL point (4.8314e-05,5)
v9: Removing PWL point (4.998e-05,0)
v9: Removing PWL point (5.2479e-05,5)
v9: Removing PWL point (5.5811e-05,5)
v9: Removing PWL point (5.9143e-05,5)
v9: Removing PWL point (6.1642e-05,0)
v9: Removing PWL point (6.5807e-05,5)
v9: Removing PWL point (6.9139e-05,5)
v9: Removing PWL point (7.2471e-05,5)
v9: Removing PWL point (7.497e-05,0)
v9: Removing PWL point (7.7469e-05,5)
v9: Removing PWL point (7.9135e-05,0)
v9: Removing PWL point (8.5799e-05,5)
v9: Removing PWL point (8.9131e-05,0)
v9: Removing PWL point (9.2463e-05,5)
v9: Removing PWL point (9.6628e-05,0)
v9: Removing PWL point (9.8294e-05,5)
v9: Removing PWL point (0.000102459,5)
v9: Removing PWL point (0.000109123,5)
v9: Removing PWL point (0.000110789,0)
v9: Removing PWL point (0.000114121,5)
v9: Removing PWL point (0.000118286,0)
v9: Removing PWL point (0.000119952,5)
v9: Removing PWL point (0.000124117,5)
v9: Removing PWL point (0.000127449,0)
v9: Removing PWL point (0.000130781,5)
v9: Removing PWL point (0.000132447,0)
v9: Removing PWL point (0.000134946,5)
v9: Removing PWL point (0.000138278,5)
v9: Removing PWL point (0.00014161,5)
v9: Removing PWL point (0.000144109,0)
v9: Removing PWL point (0.000148274,5)
v9: Removing PWL point (0.000151606,5)
v9: Removing PWL point (0.000154938,5)
v9: Removing PWL point (0.000157437,0)
v9: Removing PWL point (0.000159936,5)
v9: Removing PWL point (0.000161602,0)
v9: Removing PWL point (0.000168266,5)
v9: Removing PWL point (0.000171598,0)
v9: Removing PWL point (0.00017493,5)
v9: Removing PWL point (0.000179095,0)
v9: Removing PWL point (0.000180761,5)
v9: Removing PWL point (0.000184926,5)
v9: Removing PWL point (0.00019159,5)
v9: Removing PWL point (0.000193256,0)
v9: Removing PWL point (0.000196588,5)
v9: Removing PWL point (0.000200753,0)
v9: Removing PWL point (0.000202419,5)
v9: Removing PWL point (0.000206584,5)
v9: Removing PWL point (0.000209916,0)
v9: Removing PWL point (0.000213248,5)
v9: Removing PWL point (0.000214914,0)
v9: Removing PWL point (0.000217413,5)
v9: Removing PWL point (0.000220745,5)
v9: Removing PWL point (0.000224077,5)
v9: Removing PWL point (0.000226576,0)
v9: Removing PWL point (0.000230741,5)
v9: Removing PWL point (0.000234073,5)
v9: Removing PWL point (0.000237405,5)
v9: Removing PWL point (0.000239904,0)
v9: Removing PWL point (0.000242403,5)
v9: Removing PWL point (0.000244069,0)
v9: Removing PWL point (0.000250733,5)
v9: Removing PWL point (0.000254065,0)
v9: Removing PWL point (0.000257397,5)
v9: Removing PWL point (0.000261562,0)
v9: Removing PWL point (0.000263228,5)
v9: Removing PWL point (0.000267393,5)
v9: Removing PWL point (0.000274057,5)
v9: Removing PWL point (0.000275723,0)
v9: Removing PWL point (0.000279055,5)
v9: Removing PWL point (0.00028322,0)
v9: Removing PWL point (0.000284886,5)
v9: Removing PWL point (0.000289051,5)
v9: Removing PWL point (0.000292383,0)
v9: Removing PWL point (0.000295715,5)
v9: Removing PWL point (0.000297381,0)
v9: Removing PWL point (0.00029988,5)
v9: Removing PWL point (0.000303212,5)
v9: Removing PWL point (0.000306544,5)
v9: Removing PWL point (0.000309043,0)
v9: Removing PWL point (0.000313208,5)
v9: Removing PWL point (0.00031654,5)
v9: Removing PWL point (0.000319872,5)
v9: Removing PWL point (0.000322371,0)
v9: Removing PWL point (0.00032487,5)
v9: Removing PWL point (0.000326536,0)
v9: Removing PWL point (0.0003332,5)
v9: Removing PWL point (0.000336532,0)
v9: Removing PWL point (0.000339864,5)
v9: Removing PWL point (0.000344029,0)
v9: Removing PWL point (0.000345695,5)
v9: Removing PWL point (0.00034986,5)
v9: Removing PWL point (0.000356524,5)
v9: Removing PWL point (0.00035819,0)
v9: Removing PWL point (0.000361522,5)
v9: Removing PWL point (0.000365687,0)
v9: Removing PWL point (0.000367353,5)
v9: Removing PWL point (0.000371518,5)
v9: Removing PWL point (0.00037485,0)
v9: Removing PWL point (0.000378182,5)
v9: Removing PWL point (0.000379848,0)
v9: Removing PWL point (0.000382347,5)
v9: Removing PWL point (0.000385679,5)
v9: Removing PWL point (0.000389011,5)
v9: Removing PWL point (0.00039151,0)
v9: Removing PWL point (0.000395675,5)
v9: Removing PWL point (0.000399007,5)
v9: Removing PWL point (0.000402339,5)
v9: Removing PWL point (0.000404838,0)
v9: Removing PWL point (0.000407337,5)
v9: Removing PWL point (0.000409003,0)
v9: Removing PWL point (0.000415667,5)
v9: Removing PWL point (0.000418999,0)
v9: Removing PWL point (0.000422331,5)
v9: Removing PWL point (0.000426496,0)
v9: Removing PWL point (0.000428162,5)
v9: Removing PWL point (0.000432327,5)
v9: Removing PWL point (0.000438991,5)
v9: Removing PWL point (0.000440657,0)
v9: Removing PWL point (0.000443989,5)
v9: Removing PWL point (0.000448154,0)
v9: Removing PWL point (0.00044982,5)
v9: Removing PWL point (0.000453985,5)
v9: Removing PWL point (0.000457317,0)
v9: Removing PWL point (0.000460649,5)
v9: Removing PWL point (0.000462315,0)
v9: Removing PWL point (0.000464814,5)
v9: Removing PWL point (0.000468146,5)
v9: Removing PWL point (0.000471478,5)
v9: Removing PWL point (0.000473977,0)
v9: Removing PWL point (0.000478142,5)
v9: Removing PWL point (0.000481474,5)
v9: Removing PWL point (0.000484806,5)
v9: Removing PWL point (0.000487305,0)
v9: Removing PWL point (0.000489804,5)
v9: Removing PWL point (0.00049147,0)
v9: Removing PWL point (0.000498134,5)
v9: Removing PWL point (0.000501466,0)
v9: Removing PWL point (0.000504798,5)
v9: Removing PWL point (0.000508963,0)
v9: Removing PWL point (0.000510629,5)
v9: Removing PWL point (0.000514794,5)
v9: Removing PWL point (0.000521458,5)
v9: Removing PWL point (0.000523124,0)
v9: Removing PWL point (0.000526456,5)
v9: Removing PWL point (0.000530621,0)
v9: Removing PWL point (0.000532287,5)
v9: Removing PWL point (0.000536452,5)
v9: Removing PWL point (0.000539784,0)
v9: Removing PWL point (0.000543116,5)
v9: Removing PWL point (0.000544782,0)
v9: Removing PWL point (0.000547281,5)
v9: Removing PWL point (0.000550613,5)
v9: Removing PWL point (0.000553945,5)
v9: Removing PWL point (0.000556444,0)
v9: Removing PWL point (0.000560609,5)
v9: Removing PWL point (0.000563941,5)
v9: Removing PWL point (0.000567273,5)
v9: Removing PWL point (0.000569772,0)
v9: Removing PWL point (0.000572271,5)
v9: Removing PWL point (0.000573937,0)
v10: Removing PWL point (3.332e-06,5)
v10: Removing PWL point (4.998e-06,0)
v10: Removing PWL point (8.33e-06,5)
v10: Removing PWL point (1.0829e-05,5)
v10: Removing PWL point (1.4161e-05,0)
v10: Removing PWL point (1.7493e-05,5)
v10: Removing PWL point (1.9992e-05,0)
v10: Removing PWL point (2.2491e-05,0)
v10: Removing PWL point (2.4157e-05,5)
v10: Removing PWL point (2.8322e-05,0)
v10: Removing PWL point (3.1654e-05,5)
v10: Removing PWL point (3.4153e-05,5)
v10: Removing PWL point (3.7485e-05,0)
v10: Removing PWL point (3.9151e-05,5)
v10: Removing PWL point (4.165e-05,5)
v10: Removing PWL point (4.4982e-05,0)
v10: Removing PWL point (4.6648e-05,5)
v10: Removing PWL point (5.2479e-05,5)
v10: Removing PWL point (5.4145e-05,0)
v10: Removing PWL point (5.831e-05,0)
v10: Removing PWL point (6.2475e-05,0)
v10: Removing PWL point (6.7473e-05,0)
v10: Removing PWL point (6.9972e-05,0)
v10: Removing PWL point (7.3304e-05,5)
v10: Removing PWL point (7.9135e-05,5)
v10: Removing PWL point (8.0801e-05,0)
v10: Removing PWL point (8.5799e-05,5)
v10: Removing PWL point (8.7465e-05,0)
v10: Removing PWL point (9.0797e-05,5)
v10: Removing PWL point (9.3296e-05,5)
v10: Removing PWL point (9.6628e-05,0)
v10: Removing PWL point (9.996e-05,5)
v10: Removing PWL point (0.000102459,0)
v10: Removing PWL point (0.000104958,0)
v10: Removing PWL point (0.000106624,5)
v10: Removing PWL point (0.000110789,0)
v10: Removing PWL point (0.000114121,5)
v10: Removing PWL point (0.00011662,5)
v10: Removing PWL point (0.000119952,0)
v10: Removing PWL point (0.000121618,5)
v10: Removing PWL point (0.000124117,5)
v10: Removing PWL point (0.000127449,0)
v10: Removing PWL point (0.000129115,5)
v10: Removing PWL point (0.000134946,5)
v10: Removing PWL point (0.000136612,0)
v10: Removing PWL point (0.000140777,0)
v10: Removing PWL point (0.000144942,0)
v10: Removing PWL point (0.00014994,0)
v10: Removing PWL point (0.000152439,0)
v10: Removing PWL point (0.000155771,5)
v10: Removing PWL point (0.000161602,5)
v10: Removing PWL point (0.000163268,0)
v10: Removing PWL point (0.000168266,5)
v10: Removing PWL point (0.000169932,0)
v10: Removing PWL point (0.000173264,5)
v10: Removing PWL point (0.000175763,5)
v10: Removing PWL point (0.000179095,0)
v10: Removing PWL point (0.000182427,5)
v10: Removing PWL point (0.000184926,0)
v10: Removing PWL point (0.000187425,0)
v10: Removing PWL point (0.000189091,5)
v10: Removing PWL point (0.000193256,0)
v10: Removing PWL point (0.000196588,5)
v10: Removing PWL point (0.000199087,5)
v10: Removing PWL point (0.000202419,0)
v10: Removing PWL point (0.000204085,5)
v10: Removing PWL point (0.000206584,5)
v10: Removing PWL point (0.000209916,0)
v10: Removing PWL point (0.000211582,5)
v10: Removing PWL point (0.000217413,5)
v10: Removing PWL point (0.000219079,0)
v10: Removing PWL point (0.000223244,0)
v10: Removing PWL point (0.000227409,0)
v10: Removing PWL point (0.000232407,0)
v10: Removing PWL point (0.000234906,0)
v10: Removing PWL point (0.000238238,5)
v10: Removing PWL point (0.000244069,5)
v10: Removing PWL point (0.000245735,0)
v10: Removing PWL point (0.000250733,5)
v10: Removing PWL point (0.000252399,0)
v10: Removing PWL point (0.000255731,5)
v10: Removing PWL point (0.00025823,5)
v10: Removing PWL point (0.000261562,0)
v10: Removing PWL point (0.000264894,5)
v10: Removing PWL point (0.000267393,0)
v10: Removing PWL point (0.000269892,0)
v10: Removing PWL point (0.000271558,5)
v10: Removing PWL point (0.000275723,0)
v10: Removing PWL point (0.000279055,5)
v10: Removing PWL point (0.000281554,5)
v10: Removing PWL point (0.000284886,0)
v10: Removing PWL point (0.000286552,5)
v10: Removing PWL point (0.000289051,5)
v10: Removing PWL point (0.000292383,0)
v10: Removing PWL point (0.000294049,5)
v10: Removing PWL point (0.00029988,5)
v10: Removing PWL point (0.000301546,0)
v10: Removing PWL point (0.000305711,0)
v10: Removing PWL point (0.000309876,0)
v10: Removing PWL point (0.000314874,0)
v10: Removing PWL point (0.000317373,0)
v10: Removing PWL point (0.000320705,5)
v10: Removing PWL point (0.000326536,5)
v10: Removing PWL point (0.000328202,0)
v10: Removing PWL point (0.0003332,5)
v10: Removing PWL point (0.000334866,0)
v10: Removing PWL point (0.000338198,5)
v10: Removing PWL point (0.000340697,5)
v10: Removing PWL point (0.000344029,0)
v10: Removing PWL point (0.000347361,5)
v10: Removing PWL point (0.00034986,0)
v10: Removing PWL point (0.000352359,0)
v10: Removing PWL point (0.000354025,5)
v10: Removing PWL point (0.00035819,0)
v10: Removing PWL point (0.000361522,5)
v10: Removing PWL point (0.000364021,5)
v10: Removing PWL point (0.000367353,0)
v10: Removing PWL point (0.000369019,5)
v10: Removing PWL point (0.000371518,5)
v10: Removing PWL point (0.00037485,0)
v10: Removing PWL point (0.000376516,5)
v10: Removing PWL point (0.000382347,5)
v10: Removing PWL point (0.000384013,0)
v10: Removing PWL point (0.000388178,0)
v10: Removing PWL point (0.000392343,0)
v10: Removing PWL point (0.000397341,0)
v10: Removing PWL point (0.00039984,0)
v10: Removing PWL point (0.000403172,5)
v10: Removing PWL point (0.000409003,5)
v10: Removing PWL point (0.000410669,0)
v10: Removing PWL point (0.000415667,5)
v10: Removing PWL point (0.000417333,0)
v10: Removing PWL point (0.000420665,5)
v10: Removing PWL point (0.000423164,5)
v10: Removing PWL point (0.000426496,0)
v10: Removing PWL point (0.000429828,5)
v10: Removing PWL point (0.000432327,0)
v10: Removing PWL point (0.000434826,0)
v10: Removing PWL point (0.000436492,5)
v10: Removing PWL point (0.000440657,0)
v10: Removing PWL point (0.000443989,5)
v10: Removing PWL point (0.000446488,5)
v10: Removing PWL point (0.00044982,0)
v10: Removing PWL point (0.000451486,5)
v10: Removing PWL point (0.000453985,5)
v10: Removing PWL point (0.000457317,0)
v10: Removing PWL point (0.000458983,5)
v10: Removing PWL point (0.000464814,5)
v10: Removing PWL point (0.00046648,0)
v10: Removing PWL point (0.000470645,0)
v10: Removing PWL point (0.00047481,0)
v10: Removing PWL point (0.000479808,0)
v10: Removing PWL point (0.000482307,0)
v10: Removing PWL point (0.000485639,5)
v10: Removing PWL point (0.00049147,5)
v10: Removing PWL point (0.000493136,0)
v10: Removing PWL point (0.000498134,5)
v10: Removing PWL point (0.0004998,0)
v10: Removing PWL point (0.000503132,5)
v10: Removing PWL point (0.000505631,5)
v10: Removing PWL point (0.000508963,0)
v10: Removing PWL point (0.000512295,5)
v10: Removing PWL point (0.000514794,0)
v10: Removing PWL point (0.000517293,0)
v10: Removing PWL point (0.000518959,5)
v10: Removing PWL point (0.000523124,0)
v10: Removing PWL point (0.000526456,5)
v10: Removing PWL point (0.000528955,5)
v10: Removing PWL point (0.000532287,0)
v10: Removing PWL point (0.000533953,5)
v10: Removing PWL point (0.000536452,5)
v10: Removing PWL point (0.000539784,0)
v10: Removing PWL point (0.00054145,5)
v10: Removing PWL point (0.000547281,5)
v10: Removing PWL point (0.000548947,0)
v10: Removing PWL point (0.000553112,0)
v10: Removing PWL point (0.000557277,0)
v10: Removing PWL point (0.000562275,0)
v10: Removing PWL point (0.000564774,0)
v10: Removing PWL point (0.000568106,5)
v10: Removing PWL point (0.000573937,5)
v10: Removing PWL point (0.000575603,0)
Direct Newton iteration failed to find .op point.  (Use ".option noopiter" to skip.)
Starting Gmin stepping
Gmin = 10
Gmin = 1.07374
Gmin = 0.115292
Gmin = 0.0123794
Gmin = 0.00132923
Gmin = 0.000142725
Gmin = 1.5325e-05
Gmin = 1.6455e-06
Gmin = 1.76685e-07
Gmin = 1.89714e-08
Gmin = 2.03704e-09
Gmin = 2.18725e-10
Gmin = 2.34854e-11
Gmin = 2.52173e-12
Gmin = 2.70769e-13
Gmin = 0
Gmin stepping succeeded in finding the operating point.


t1: time=1.66357e-06 at 1.66357e-06
t2: time=9.15016e-05 at 9.15016e-05
frequency: 1/(t2-t1)=11131.1


Date: Sun Dec 22 22:08:52 2024
Total elapsed time: 0.628 seconds.

tnom = 27
temp = 27
method = modified trap
totiter = 21208
traniter = 20816
tranpoints = 10409
accept = 10409
rejected = 0
matrix size = 26
fillins = 0
solver = Normal
Avg thread counts: 1.3/1.5/1.6/1.3
Matrix Compiler1:      53 opcodes  0.5/[0.2]/0.2
Matrix Compiler2: 1.80 KB object code size  0.3/0.3/[0.2]

